Version 4
SHEET 1 1656 680
WIRE 1392 -64 1328 -64
WIRE 1568 -64 1472 -64
WIRE 544 0 512 0
WIRE 544 32 512 32
WIRE 864 32 704 32
WIRE 896 32 864 32
WIRE 1008 32 976 32
WIRE 1040 32 1008 32
WIRE 1136 32 1120 32
WIRE 1184 32 1136 32
WIRE 1280 32 1264 32
WIRE 1328 32 1328 -64
WIRE 1328 32 1280 32
WIRE 1392 32 1328 32
WIRE 1568 48 1568 -64
WIRE 1568 48 1456 48
WIRE 1600 48 1568 48
WIRE 544 64 512 64
WIRE 1392 64 1344 64
WIRE 704 80 704 32
WIRE 864 80 864 32
WIRE 1008 80 1008 32
WIRE 1136 80 1136 32
WIRE 1280 80 1280 32
WIRE 1568 80 1568 48
WIRE 544 96 512 96
WIRE 704 192 704 160
WIRE 544 224 512 224
WIRE 544 240 544 224
WIRE 608 272 608 240
FLAG 1312 256 in
FLAG 512 192 in
FLAG 544 240 0
FLAG 1312 336 0
FLAG 608 240 clk
FLAG 336 96 clk
FLAG 608 352 0
FLAG 336 32 in
FLAG 512 160 in
FLAG 544 0 2^0
FLAG 544 32 2^1
FLAG 544 64 2^2
FLAG 544 96 2^3
FLAG 704 192 0
FLAG 864 160 2^0
FLAG 1008 160 2^1
FLAG 1136 160 2^2
FLAG 1280 160 2^3
FLAG 1344 64 0
FLAG 1568 160 0
FLAG 1424 16 15
FLAG 1424 80 -15
FLAG 1424 256 15
FLAG 1520 256 -15
FLAG 1424 336 0
FLAG 1520 336 0
FLAG 1600 48 out
SYMBOL voltage 1312 240 R0
WINDOW 123 0 0 Left 0
WINDOW 39 0 0 Left 0
SYMATTR InstName V1
SYMATTR Value 5
SYMBOL voltage 608 256 R0
WINDOW 123 0 0 Left 0
WINDOW 39 0 0 Left 0
SYMATTR InstName V2
SYMATTR Value PULSE(0 5 0.5m 0.0001m 0.0001m 0.5m 1m)
SYMBOL res 688 64 R0
SYMATTR InstName R1
SYMATTR Value 68k
SYMBOL res 848 64 R0
SYMATTR InstName R2
SYMATTR Value 68k
SYMBOL res 992 64 R0
SYMATTR InstName R3
SYMATTR Value 68k
SYMBOL res 1120 64 R0
SYMATTR InstName R4
SYMATTR Value 68k
SYMBOL res 1264 64 R0
SYMATTR InstName R5
SYMATTR Value 68k
SYMBOL res 992 16 R90
WINDOW 0 0 56 VBottom 2
WINDOW 3 32 56 VTop 2
SYMATTR InstName R6
SYMATTR Value 33k
SYMBOL res 1136 16 R90
WINDOW 0 0 56 VBottom 2
WINDOW 3 32 56 VTop 2
SYMATTR InstName R7
SYMATTR Value 33k
SYMBOL res 1280 16 R90
WINDOW 0 0 56 VBottom 2
WINDOW 3 32 56 VTop 2
SYMATTR InstName R8
SYMATTR Value 33k
SYMBOL TL082 1424 48 R0
SYMATTR InstName U2
SYMBOL res 1488 -80 R90
WINDOW 0 0 56 VBottom 2
WINDOW 3 32 56 VTop 2
SYMATTR InstName R9
SYMATTR Value 33k
SYMBOL res 1552 64 R0
SYMATTR InstName R10
SYMATTR Value 10k
SYMBOL voltage 1424 240 R0
WINDOW 123 0 0 Left 0
WINDOW 39 0 0 Left 0
SYMATTR InstName V3
SYMATTR Value 15
SYMBOL voltage 1520 240 R0
WINDOW 123 0 0 Left 0
WINDOW 39 0 0 Left 0
SYMATTR InstName V4
SYMATTR Value -15
SYMBOL CD4029B 416 112 R0
SYMATTR InstName U1
TEXT 296 400 Left 2 !.tran 33m
